 
 **********************************************
 **** Specfem 3-D Solver - MPI version f90 ****
 **********************************************
 
 Running Git package version of the code: v2.0.2-2917-g2493619a
 which is Git commit 2493619affcd8929eb5b827be29acf9bf13d7e36
 dating From Date:   Mon Nov 11 09:34:28 2019 -0700
 
 
 There are         2304  MPI processes
 Processes are numbered from 0 to         2303
 
 There is a total of         2304  slices
 
  NDIM =            3
 
  NGLLX =            5
  NGLLY =            5
  NGLLZ =            5
 
 using single precision for the calculations
 
 smallest and largest possible floating-point numbers are:   1.1754944E-38
  3.4028235E+38
 
 velocity model:   default 
 
 total acoustic elements    :           0
 total elastic elements     :    43462656
 total poroelastic elements :           0
 
 ********
 minimum and maximum number of elements
 and points in the CUBIT + SCOTCH mesh:
 
 NSPEC_global_min =        18864
 NSPEC_global_max =        18864
 NSPEC_global_max / NSPEC_global_min imbalance =    1.000000      = 
  0.0000000E+00  %
 NSPEC_global_sum =     43462656
 
 NGLOB_global_min =      1251057
 NGLOB_global_max =      1251057
 NGLOB_global_max / NGLOB_global_min imbalance =    1.000000      = 
  0.0000000E+00  %
 NGLOB_global_sum =  -1412531968
 
 If you have elements of a single type (all acoustic, all elastic, all poroelast
 ic, and without CPML)
 in the whole mesh, then there should be no significant imbalance in the above n
 umbers.
 Otherwise, it is normal to have imbalance in elements and points because the do
 main decomposer
 compensates for the different cost of different elements by partitioning them u
 nevenly among processes.
 ********
 
 
 ********
 Model: P velocity min,max =    339.0000       5499.000    
 Model: S velocity min,max =    202.0000       3175.000    
 Model: rho min,max =    1374.400       2600.000    
 
 Model: Poisson's ratio min,max =   0.2247325      0.3209033    
 ********
 
 *********************************************
 *** Verification of simulation parameters ***
 *********************************************
 
 *** Xmin and Xmax of the model =    495267.0       563804.2    
 *** Ymin and Ymax of the model =    184447.4       260619.6    
 *** Zmin and Zmax of the model =   -18000.00      -2700.000    
 
 *** Max GLL point distance =    152.6340    
 *** Min GLL point distance =    4.604492    
 *** Max/min ratio =    33.14894    
 
 *** Max element size =    466.3042    
 *** Min element size =    26.66650    
 *** Max/min ratio =    17.48652    
 
 *** Minimum period resolved =   0.3834739    
 *** Maximum suggested time step =   1.1218992E-03
 
 *** for DT :   7.500000000000000E-004
 *** Max stability for wave velocities =   0.3342546    
 
 Elapsed time for checking mesh resolution in seconds =   2.067909506149590E-002
 saving VTK files for Courant number and minimum period
 
 ******************************************
 There is a total of         2304  slices
 ******************************************
 
 
 kd-tree:
   total data points:        18864
   theoretical   number of nodes:        37722
                tree memory size:    1.151184     MB
   actual        number of nodes:        37727
                tree memory size:    1.151337     MB
   maximum depth   :           21
   creation timing :   9.6621513E-03 (s)
 
 
 sources:           1
 
 ********************
  locating sources
 ********************
 
 reading source information from ./DATA/CMTSOLUTION file
 
 UTM projection:
   UTM zone:           53
 
 source #            1
   source located in slice          216
                  in element        18791
                  in elastic domain
 
   using moment tensor source: 
     xi coordinate of source in that element:  -0.400506937041876     
     eta coordinate of source in that element:   0.966958027627030     
     gamma coordinate of source in that element:   0.625001144405671     
 
   source time function:
     using external source time function
 
     time shift:   0.000000000000000E+000  seconds
 
   magnitude of the source:
        scalar moment M0 =    34992185720529.1       dyne-cm
     moment magnitude Mw =   -1.67068576212415     
 
   original (requested) position of the source:
 
             latitude:    3.28480000000000     
            longitude:    135.510500000000     
 
            UTM x:    530198.917459311     
            UTM y:    192348.360024894     
           depth:   5.000000000000000E-003  km
 
   position of the source that will be used:
 
            UTM x:    530198.917459311     
            UTM y:    192348.360024894     
            depth:   5.000000000000000E-003  km
                z:   -2705.00000000000     
 
   error in location of the source:   2.9103830E-11  m
 
 
 
 maximum error in location of the sources:   2.9103830E-11  m
 
 
 Elapsed time for detection of sources in seconds =   6.377680297009647E-002
 
 End of source detection - done
 
 External STF:
   simulation start time set to zero:   0.000000000000000E+000
 
 
 printing the source-time function
 
 receivers:
 
 there are           51  stations in file ./DATA/STATIONS
 saving           51  stations inside the model in file ./DATA/STATIONS_FILTERED
 excluding            0  stations located outside the model
 
 
 Total number of receivers =           51
 
 
 ********************
  locating receivers
 ********************
 
 reading receiver information from ./DATA/STATIONS_FILTERED file
 
 
 station #            1     D01    KO
      original latitude:    3.301710    
      original longitude:    135.5100    
      original UTM x:    530168.8    
      original UTM y:    193338.6    
      original depth:   0.0000000E+00  m
      horizontal distance km:   0.9906811    
      target x, y, z:    530168.8       193338.6      -2700.000    
      closest estimate found:   0.0000000E+00  m away
 
      receiver located in slice          264
                       in element        17926
                       in elastic domain
      at coordinates: 
      xi    =  -0.426020444779181     
      eta   =   0.869935721945826     
      gamma =    1.00000000000000     
      rotation matrix: 
      nu1 =    1.000000      0.0000000E+00  0.0000000E+00
      nu2 =   0.0000000E+00   1.000000      0.0000000E+00
      nu3 =   0.0000000E+00  0.0000000E+00   1.000000    
      UTM x:    530168.832509023     
      UTM y:    193338.584249903     
      depth:   0.000000000000000E+000  m
      z:   -2700.00000000000     
 
 
 
 station #            2     D02    KO
      original latitude:    3.318610    
      original longitude:    135.5100    
      original UTM x:    530168.3    
      original UTM y:    194328.2    
      original depth:   0.0000000E+00  m
      horizontal distance km:    1.980115    
      target x, y, z:    530168.3       194328.2      -2700.000    
      closest estimate found:   0.0000000E+00  m away
 
      receiver located in slice          312
                       in element        17062
                       in elastic domain
      at coordinates: 
      xi    =  -0.460289172576205     
      eta   =   0.738439143614092     
      gamma =    1.00000000000000     
      rotation matrix: 
      nu1 =    1.000000      0.0000000E+00  0.0000000E+00
      nu2 =   0.0000000E+00   1.000000      0.0000000E+00
      nu3 =   0.0000000E+00  0.0000000E+00   1.000000    
      UTM x:    530168.323832595     
      UTM y:    194328.238572093     
      depth:   0.000000000000000E+000  m
      z:   -2700.00000000000     
 
 
 
 station #            3     D03    KO
      original latitude:    3.335520    
      original longitude:    135.5100    
      original UTM x:    530167.8    
      original UTM y:    195318.5    
      original depth:   0.0000000E+00  m
      horizontal distance km:    2.970282    
      target x, y, z:    530167.8       195318.5      -2700.000    
      closest estimate found:   1.1641532E-10  m away
 
      receiver located in slice          312
                       in element        18502
                       in elastic domain
      at coordinates: 
      xi    =  -0.494753116046603     
      eta   =   0.643178925903268     
      gamma =    1.00000000000003     
      rotation matrix: 
      nu1 =    1.000000      0.0000000E+00  0.0000000E+00
      nu2 =   0.0000000E+00   1.000000      0.0000000E+00
      nu3 =   0.0000000E+00  0.0000000E+00   1.000000    
      UTM x:    530167.812258434     
      UTM y:    195318.479089284     
      depth:   0.000000000000000E+000  m
      z:   -2700.00000000000     
 
 
 
 station #            4     D04    KO
      original latitude:    3.352420    
      original longitude:    135.5100    
      original UTM x:    530167.3    
      original UTM y:    196308.1    
      original depth:   0.0000000E+00  m
      horizontal distance km:    3.959901    
      target x, y, z:    530167.3       196308.1      -2700.000    
      closest estimate found:   4.5474735E-13  m away
 
      receiver located in slice          360
                       in element        17638
                       in elastic domain
      at coordinates: 
      xi    =  -0.529371510868417     
      eta   =   0.511923796567582     
      gamma =    1.00000000000000     
      rotation matrix: 
      nu1 =    1.000000      0.0000000E+00  0.0000000E+00
      nu2 =   0.0000000E+00   1.000000      0.0000000E+00
      nu3 =   0.0000000E+00  0.0000000E+00   1.000000    
      UTM x:    530167.298391636     
      UTM y:    196308.134615262     
      depth:   4.547473508864641E-013  m
      z:   -2700.00000000000     
 
 
 
 station #            5     D05    KO
      original latitude:    3.369330    
      original longitude:    135.5100    
      original UTM x:    530166.8    
      original UTM y:    197298.4    
      original depth:   0.0000000E+00  m
      horizontal distance km:    4.950120    
      target x, y, z:    530166.8       197298.4      -2700.000    
      closest estimate found:   0.0000000E+00  m away
 
      receiver located in slice          408
                       in element        16774
                       in elastic domain
      at coordinates: 
      xi    =  -0.564185322890495     
      eta   =   0.415960259897471     
      gamma =    1.00000000000000     
      rotation matrix: 
      nu1 =    1.000000      0.0000000E+00  0.0000000E+00
      nu2 =   0.0000000E+00   1.000000      0.0000000E+00
      nu3 =   0.0000000E+00  0.0000000E+00   1.000000    
      UTM x:    530166.781624113     
      UTM y:    197298.376343046     
      depth:   0.000000000000000E+000  m
      z:   -2700.00000000000     
 
 
 
 station #            6     D06    KO
      original latitude:    3.386230    
      original longitude:    135.5100    
      original UTM x:    530166.2    
      original UTM y:    198288.0    
      original depth:   0.0000000E+00  m
      horizontal distance km:    5.939763    
      target x, y, z:    530166.2       198288.0      -2700.000    
      closest estimate found:   2.9103830E-11  m away
 
      receiver located in slice          408
                       in element        18214
                       in elastic domain
      at coordinates: 
      xi    =  -0.599153373961548     
      eta   =   0.284610056175739     
      gamma =    1.00000000000000     
      rotation matrix: 
      nu1 =    1.000000      0.0000000E+00  0.0000000E+00
      nu2 =   0.0000000E+00   1.000000      0.0000000E+00
      nu3 =   0.0000000E+00  0.0000000E+00   1.000000    
      UTM x:    530166.262567105     
      UTM y:    198288.033084991     
      depth:   0.000000000000000E+000  m
      z:   -2700.00000000000     
 
 
 
 station #            7     D07    KO
      original latitude:    3.403140    
      original longitude:    135.5100    
      original UTM x:    530165.8    
      original UTM y:    199278.3    
      original depth:   0.0000000E+00  m
      horizontal distance km:    6.929996    
      target x, y, z:    530165.8       199278.3      -2700.000    
      closest estimate found:   2.9103830E-11  m away
 
      receiver located in slice          456
                       in element        17350
                       in elastic domain
      at coordinates: 
      xi    =  -0.634317043673213     
      eta   =   0.188720487121542     
      gamma =    1.00000000000000     
      rotation matrix: 
      nu1 =    1.000000      0.0000000E+00  0.0000000E+00
      nu2 =   0.0000000E+00   1.000000      0.0000000E+00
      nu3 =   0.0000000E+00  0.0000000E+00   1.000000    
      UTM x:    530165.740606383     
      UTM y:    199278.276035553     
      depth:   0.000000000000000E+000  m
      z:   -2700.00000000000     
 
 
 
 station #            8     D08    KO
      original latitude:    3.420040    
      original longitude:    135.5100    
      original UTM x:    530165.2    
      original UTM y:    200267.9    
      original depth:   0.0000000E+00  m
      horizontal distance km:    7.919646    
      target x, y, z:    530165.2       200267.9      -2700.000    
      closest estimate found:   0.0000000E+00  m away
 
      receiver located in slice          456
                       in element        18790
                       in elastic domain
      at coordinates: 
      xi    =  -0.669634740092414     
      eta   =   5.744457551734152E-002
      gamma =    1.00000000000000     
      rotation matrix: 
      nu1 =    1.000000      0.0000000E+00  0.0000000E+00
      nu2 =   0.0000000E+00   1.000000      0.0000000E+00
      nu3 =   0.0000000E+00  0.0000000E+00   1.000000    
      UTM x:    530165.216359327     
      UTM y:    200267.934005639     
      depth:   0.000000000000000E+000  m
      z:   -2700.00000000000     
 
 
 
 station #            9     D09    KO
      original latitude:    3.436950    
      original longitude:    135.5100    
      original UTM x:    530164.7    
      original UTM y:    201258.2    
      original depth:   0.0000000E+00  m
      horizontal distance km:    8.909883    
      target x, y, z:    530164.7       201258.2      -2700.000    
      closest estimate found:   0.0000000E+00  m away
 
      receiver located in slice          504
                       in element        17926
                       in elastic domain
      at coordinates: 
      xi    =  -0.705148256545166     
      eta   =  -3.791561776656588E-002
      gamma =    1.00000000000000     
      rotation matrix: 
      nu1 =    1.000000      0.0000000E+00  0.0000000E+00
      nu2 =   0.0000000E+00   1.000000      0.0000000E+00
      nu3 =   0.0000000E+00  0.0000000E+00   1.000000    
      UTM x:    530164.689205567     
      UTM y:    201258.178191160     
      depth:   0.000000000000000E+000  m
      z:   -2700.00000000000     
 
 
 
 station #           10     D10    KO
      original latitude:    3.453860    
      original longitude:    135.5100    
      original UTM x:    530164.2    
      original UTM y:    202248.4    
      original depth:   0.0000000E+00  m
      horizontal distance km:    9.900124    
      target x, y, z:    530164.2       202248.4      -2700.000    
      closest estimate found:   0.0000000E+00  m away
 
      receiver located in slice          552
                       in element        17062
                       in elastic domain
      at coordinates: 
      xi    =  -0.740836743954143     
      eta   =  -0.133202334267346     
      gamma =    1.00000000000000     
      rotation matrix: 
      nu1 =    1.000000      0.0000000E+00  0.0000000E+00
      nu2 =   0.0000000E+00   1.000000      0.0000000E+00
      nu3 =   0.0000000E+00  0.0000000E+00   1.000000    
      UTM x:    530164.159454582     
      UTM y:    202248.422998912     
      depth:   0.000000000000000E+000  m
      z:   -2700.00000000000     
 
 
 
 station #           11     D11    KO
      original latitude:    3.470760    
      original longitude:    135.5100    
      original UTM x:    530163.6    
      original UTM y:    203238.1    
      original depth:   0.0000000E+00  m
      horizontal distance km:    10.88978    
      target x, y, z:    530163.6       203238.1      -2700.000    
      closest estimate found:   0.0000000E+00  m away
 
      receiver located in slice          552
                       in element        18502
                       in elastic domain
      at coordinates: 
      xi    =  -0.776678939405402     
      eta   =  -0.264365415766638     
      gamma =    1.00000000000000     
      rotation matrix: 
      nu1 =    1.000000      0.0000000E+00  0.0000000E+00
      nu2 =   0.0000000E+00   1.000000      0.0000000E+00
      nu3 =   0.0000000E+00  0.0000000E+00   1.000000    
      UTM x:    530163.627421993     
      UTM y:    203238.082834221     
      depth:   0.000000000000000E+000  m
      z:   -2700.00000000000     
 
 
 
 station #           12     D12    KO
      original latitude:    3.487670    
      original longitude:    135.5100    
      original UTM x:    530163.1    
      original UTM y:    204228.3    
      original depth:   0.0000000E+00  m
      horizontal distance km:    11.88002    
      target x, y, z:    530163.1       204228.3      -2700.000    
      closest estimate found:   2.9103830E-11  m away
 
      receiver located in slice          600
                       in element        17638
                       in elastic domain
      at coordinates: 
      xi    =  -0.812717256897381     
      eta   =  -0.360066830833556     
      gamma =    1.00000000000000     
      rotation matrix: 
      nu1 =    1.000000      0.0000000E+00  0.0000000E+00
      nu2 =   0.0000000E+00   1.000000      0.0000000E+00
      nu3 =   0.0000000E+00  0.0000000E+00   1.000000    
      UTM x:    530163.092478218     
      UTM y:    204228.328895203     
      depth:   0.000000000000000E+000  m
      z:   -2700.00000000000     
 
 
 
 station #           13     D13    KO
      original latitude:    3.504570    
      original longitude:    135.5100    
      original UTM x:    530162.6    
      original UTM y:    205218.0    
      original depth:   0.0000000E+00  m
      horizontal distance km:    12.86968    
      target x, y, z:    530162.6       205218.0      -2700.000    
      closest estimate found:   0.0000000E+00  m away
 
      receiver located in slice          648
                       in element        16774
                       in elastic domain
      at coordinates: 
      xi    =  -0.848909069958634     
      eta   =  -0.491153779288035     
      gamma =    1.00000000000000     
      rotation matrix: 
      nu1 =    1.000000      0.0000000E+00  0.0000000E+00
      nu2 =   0.0000000E+00   1.000000      0.0000000E+00
      nu3 =   0.0000000E+00  0.0000000E+00   1.000000    
      UTM x:    530162.555255993     
      UTM y:    205217.989989086     
      depth:   0.000000000000000E+000  m
      z:   -2700.00000000000     
 
 
 
 station #           14     D14    KO
      original latitude:    3.521480    
      original longitude:    135.5100    
      original UTM x:    530162.0    
      original UTM y:    206208.2    
      original depth:   0.0000000E+00  m
      horizontal distance km:    13.85993    
      target x, y, z:    530162.0       206208.2      -2700.000    
      closest estimate found:   0.0000000E+00  m away
 
      receiver located in slice          648
                       in element        18214
                       in elastic domain
      at coordinates: 
      xi    =  -0.885297206303119     
      eta   =  -0.586778647965073     
      gamma =    1.00000000000000     
      rotation matrix: 
      nu1 =    1.000000      0.0000000E+00  0.0000000E+00
      nu2 =   0.0000000E+00   1.000000      0.0000000E+00
      nu3 =   0.0000000E+00  0.0000000E+00   1.000000    
      UTM x:    530162.015119594     
      UTM y:    206208.237315476     
      depth:   0.000000000000000E+000  m
      z:   -2700.00000000000     
 
 
 
 station #           15     D15    KO
      original latitude:    3.538380    
      original longitude:    135.5100    
      original UTM x:    530161.5    
      original UTM y:    207197.9    
      original depth:   0.0000000E+00  m
      horizontal distance km:    14.84959    
      target x, y, z:    530161.5       207197.9      -2700.000    
      closest estimate found:   0.0000000E+00  m away
 
      receiver located in slice          696
                       in element        17350
                       in elastic domain
      at coordinates: 
      xi    =  -0.921838625685241     
      eta   =  -0.717655294013846     
      gamma =    1.00000000000000     
      rotation matrix: 
      nu1 =    1.000000      0.0000000E+00  0.0000000E+00
      nu2 =   0.0000000E+00   1.000000      0.0000000E+00
      nu3 =   0.0000000E+00  0.0000000E+00   1.000000    
      UTM x:    530161.472707900     
      UTM y:    207197.899680103     
      depth:   0.000000000000000E+000  m
      z:   -2700.00000000000     
 
 
 
 station #           16     D16    KO
      original latitude:    3.555290    
      original longitude:    135.5100    
      original UTM x:    530160.9    
      original UTM y:    208188.1    
      original depth:   0.0000000E+00  m
      horizontal distance km:    15.83983    
      target x, y, z:    530160.9       208188.1      -2700.000    
      closest estimate found:   0.0000000E+00  m away
 
      receiver located in slice          696
                       in element        18790
                       in elastic domain
      at coordinates: 
      xi    =  -0.958576569533702     
      eta   =  -0.812391133415404     
      gamma =    1.00000000000000     
      rotation matrix: 
      nu1 =    1.000000      0.0000000E+00  0.0000000E+00
      nu2 =   0.0000000E+00   1.000000      0.0000000E+00
      nu3 =   0.0000000E+00  0.0000000E+00   1.000000    
      UTM x:    530160.927379046     
      UTM y:    208188.148284076     
      depth:   0.000000000000000E+000  m
      z:   -2700.00000000000     
 
 
 
 station #           17     D17    KO
      original latitude:    3.572190    
      original longitude:    135.5100    
      original UTM x:    530160.4    
      original UTM y:    209177.8    
      original depth:   0.0000000E+00  m
      horizontal distance km:    16.82950    
      target x, y, z:    530160.4       209177.8      -2700.000    
      closest estimate found:   0.0000000E+00  m away
 
      receiver located in slice          744
                       in element        17926
                       in elastic domain
      at coordinates: 
      xi    =  -0.995467583850810     
      eta   =  -0.943323607475537     
      gamma =    1.00000000000000     
      rotation matrix: 
      nu1 =    1.000000      0.0000000E+00  0.0000000E+00
      nu2 =   0.0000000E+00   1.000000      0.0000000E+00
      nu3 =   0.0000000E+00  0.0000000E+00   1.000000    
      UTM x:    530160.379778052     
      UTM y:    209177.811931614     
      depth:   0.000000000000000E+000  m
      z:   -2700.00000000000     
 
 
 
 station #           18     D18    KO
      original latitude:    3.589100    
      original longitude:    135.5100    
      original UTM x:    530159.8    
      original UTM y:    210168.1    
      original depth:   0.0000000E+00  m
      horizontal distance km:    17.81974    
      target x, y, z:    530159.8       210168.1      -2700.000    
      closest estimate found:   0.0000000E+00  m away
 
      receiver located in slice          792
                       in element        17013
                       in elastic domain
      at coordinates: 
      xi    =   0.967513069792205     
      eta   =   0.961206826096179     
      gamma =   0.999999999999966     
      rotation matrix: 
      nu1 =    1.000000      0.0000000E+00  0.0000000E+00
      nu2 =   0.0000000E+00   1.000000      0.0000000E+00
      nu3 =   0.0000000E+00  0.0000000E+00   1.000000    
      UTM x:    530159.829256913     
      UTM y:    210168.061825344     
      depth:   0.000000000000000E+000  m
      z:   -2700.00000000000     
 
 
 
 station #           19     D19    KO
      original latitude:    3.606010    
      original longitude:    135.5100    
      original UTM x:    530159.2    
      original UTM y:    211158.3    
      original depth:   0.0000000E+00  m
      horizontal distance km:    18.80999    
      target x, y, z:    530159.2       211158.3      -2700.000    
      closest estimate found:   0.0000000E+00  m away
 
      receiver located in slice          792
                       in element        18453
                       in elastic domain
      at coordinates: 
      xi    =   0.930328667414289     
      eta   =   0.865776557096814     
      gamma =    1.00000000000000     
      rotation matrix: 
      nu1 =    1.000000      0.0000000E+00  0.0000000E+00
      nu2 =   0.0000000E+00   1.000000      0.0000000E+00
      nu3 =   0.0000000E+00  0.0000000E+00   1.000000    
      UTM x:    530159.276138928     
      UTM y:    211158.312368710     
      depth:   0.000000000000000E+000  m
      z:   -2700.00000000000     
 
 
 
 station #           20     D20    KO
      original latitude:    3.622910    
      original longitude:    135.5100    
      original UTM x:    530158.8    
      original UTM y:    212148.0    
      original depth:   0.0000000E+00  m
      horizontal distance km:    19.79966    
      target x, y, z:    530158.8       212148.0      -2700.000    
      closest estimate found:   0.0000000E+00  m away
 
      receiver located in slice          840
                       in element        17589
                       in elastic domain
      at coordinates: 
      xi    =   0.892991834468827     
      eta   =   0.734961882377796     
      gamma =    1.00000000000003     
      rotation matrix: 
      nu1 =    1.000000      0.0000000E+00  0.0000000E+00
      nu2 =   0.0000000E+00   1.000000      0.0000000E+00
      nu3 =   0.0000000E+00  0.0000000E+00   1.000000    
      UTM x:    530158.720753538     
      UTM y:    212147.977963618     
      depth:   0.000000000000000E+000  m
      z:   -2700.00000000000     
 
 
 
 station #           21     D21    KO
      original latitude:    3.639820    
      original longitude:    135.5100    
      original UTM x:    530158.2    
      original UTM y:    213138.2    
      original depth:   0.0000000E+00  m
      horizontal distance km:    20.78991    
      target x, y, z:    530158.2       213138.2      -2700.000    
      closest estimate found:   0.0000000E+00  m away
 
      receiver located in slice          888
                       in element        16725
                       in elastic domain
      at coordinates: 
      xi    =   0.855458388261560     
      eta   =   0.639610737234533     
      gamma =    1.00000000000000     
      rotation matrix: 
      nu1 =    1.000000      0.0000000E+00  0.0000000E+00
      nu2 =   0.0000000E+00   1.000000      0.0000000E+00
      nu3 =   0.0000000E+00  0.0000000E+00   1.000000    
      UTM x:    530158.162443525     
      UTM y:    213138.229815000     
      depth:   0.000000000000000E+000  m
      z:   -2700.00000000000     
 
 
 
 station #           22     D22    KO
      original latitude:    3.656720    
      original longitude:    135.5100    
      original UTM x:    530157.6    
      original UTM y:    214127.9    
      original depth:   0.0000000E+00  m
      horizontal distance km:    21.77958    
      target x, y, z:    530157.6       214127.9      -2700.000    
      closest estimate found:   0.0000000E+00  m away
 
      receiver located in slice          888
                       in element        18165
                       in elastic domain
      at coordinates: 
      xi    =   0.817772723737816     
      eta   =   0.509588923768997     
      gamma =    1.00000000000000     
      rotation matrix: 
      nu1 =    1.000000      0.0000000E+00  0.0000000E+00
      nu2 =   0.0000000E+00   1.000000      0.0000000E+00
      nu3 =   0.0000000E+00  0.0000000E+00   1.000000    
      UTM x:    530157.601869266     
      UTM y:    214127.896723233     
      depth:   0.000000000000000E+000  m
      z:   -2700.00000000000     
 
 
 
 station #           23     D23    KO
      original latitude:    3.673630    
      original longitude:    135.5100    
      original UTM x:    530157.1    
      original UTM y:    215118.2    
      original depth:   0.0000000E+00  m
      horizontal distance km:    22.76983    
      target x, y, z:    530157.1       215118.2      -2700.000    
      closest estimate found:   2.9103830E-11  m away
 
      receiver located in slice          936
                       in element        17301
                       in elastic domain
      at coordinates: 
      xi    =   0.779890245401427     
      eta   =   0.414549401890658     
      gamma =    1.00000000000000     
      rotation matrix: 
      nu1 =    1.000000      0.0000000E+00  0.0000000E+00
      nu2 =   0.0000000E+00   1.000000      0.0000000E+00
      nu3 =   0.0000000E+00  0.0000000E+00   1.000000    
      UTM x:    530157.038367400     
      UTM y:    215118.149894800     
      depth:   0.000000000000000E+000  m
      z:   -2700.00000000000     
 
 
 
 station #           24     D24    KO
      original latitude:    3.690530    
      original longitude:    135.5100    
      original UTM x:    530156.5    
      original UTM y:    216107.8    
      original depth:   0.0000000E+00  m
      horizontal distance km:    23.75950    
      target x, y, z:    530156.5       216107.8      -2700.000    
      closest estimate found:   1.1641532E-10  m away
 
      receiver located in slice          936
                       in element        18741
                       in elastic domain
      at coordinates: 
      xi    =   0.741855761031888     
      eta   =   0.283894352688822     
      gamma =    1.00000000000000     
      rotation matrix: 
      nu1 =    1.000000      0.0000000E+00  0.0000000E+00
      nu2 =   0.0000000E+00   1.000000      0.0000000E+00
      nu3 =   0.0000000E+00  0.0000000E+00   1.000000    
      UTM x:    530156.472604445     
      UTM y:    216107.818128518     
      depth:   0.000000000000000E+000  m
      z:   -2700.00000000000     
 
 
 
 station #           25     D25    KO
      original latitude:    3.707440    
      original longitude:    135.5100    
      original UTM x:    530155.9    
      original UTM y:    217098.1    
      original depth:   0.0000000E+00  m
      horizontal distance km:    24.74975    
      target x, y, z:    530155.9       217098.1      -2700.000    
      closest estimate found:   2.9103830E-11  m away
 
      receiver located in slice          984
                       in element        17877
                       in elastic domain
      at coordinates: 
      xi    =   0.703624262376173     
      eta   =   0.188703663571472     
      gamma =    1.00000000000000     
      rotation matrix: 
      nu1 =    1.000000      0.0000000E+00  0.0000000E+00
      nu2 =   0.0000000E+00   1.000000      0.0000000E+00
      nu3 =   0.0000000E+00  0.0000000E+00   1.000000    
      UTM x:    530155.903910903     
      UTM y:    217098.072632438     
      depth:   0.000000000000000E+000  m
      z:   -2700.00000000000     
 
 
 
 station #           26     D26    KO
      original latitude:    3.724340    
      original longitude:    135.5100    
      original UTM x:    530155.3    
      original UTM y:    218087.8    
      original depth:   0.0000000E+00  m
      horizontal distance km:    25.73942    
      target x, y, z:    530155.3       218087.8      -2700.000    
      closest estimate found:   0.0000000E+00  m away
 
      receiver located in slice         1032
                       in element        17013
                       in elastic domain
      at coordinates: 
      xi    =   0.665240970028855     
      eta   =   5.812953049158553E-002
      gamma =    1.00000000000000     
      rotation matrix: 
      nu1 =    1.000000      0.0000000E+00  0.0000000E+00
      nu2 =   0.0000000E+00   1.000000      0.0000000E+00
      nu3 =   0.0000000E+00  0.0000000E+00   1.000000    
      UTM x:    530155.332959429     
      UTM y:    218087.742203801     
      depth:   0.000000000000000E+000  m
      z:   -2700.00000000000     
 
 
 
 station #           27     D27    KO
      original latitude:    3.741250    
      original longitude:    135.5100    
      original UTM x:    530154.8    
      original UTM y:    219078.0    
      original depth:   0.0000000E+00  m
      horizontal distance km:    26.72968    
      target x, y, z:    530154.8       219078.0      -2700.000    
      closest estimate found:   0.0000000E+00  m away
 
      receiver located in slice         1032
                       in element        18453
                       in elastic domain
      at coordinates: 
      xi    =   0.626660462973179     
      eta   =  -3.697982668306234E-002
      gamma =    1.00000000000000     
      rotation matrix: 
      nu1 =    1.000000      0.0000000E+00  0.0000000E+00
      nu2 =   0.0000000E+00   1.000000      0.0000000E+00
      nu3 =   0.0000000E+00  0.0000000E+00   1.000000    
      UTM x:    530154.759074387     
      UTM y:    219077.998052240     
      depth:   0.000000000000000E+000  m
      z:   -2700.00000000000     
 
 
 
 station #           28     D28    KO
      original latitude:    3.758160    
      original longitude:    135.5100    
      original UTM x:    530154.2    
      original UTM y:    220068.2    
      original depth:   0.0000000E+00  m
      horizontal distance km:    27.71993    
      target x, y, z:    530154.2       220068.2      -2700.000    
      closest estimate found:   2.9103830E-11  m away
 
      receiver located in slice         1080
                       in element        17589
                       in elastic domain
      at coordinates: 
      xi    =   0.587905404615296     
      eta   =  -0.131637850722593     
      gamma =    1.00000000000000     
      rotation matrix: 
      nu1 =    1.000000      0.0000000E+00  0.0000000E+00
      nu2 =   0.0000000E+00   1.000000      0.0000000E+00
      nu3 =   0.0000000E+00  0.0000000E+00   1.000000    
      UTM x:    530154.182592894     
      UTM y:    220068.254577701     
      depth:   0.000000000000000E+000  m
      z:   -2700.00000000000     
 
 
 
 station #           29     D29    KO
      original latitude:    3.775060    
      original longitude:    135.5100    
      original UTM x:    530153.6    
      original UTM y:    221057.9    
      original depth:   0.0000000E+00  m
      horizontal distance km:    28.70960    
      target x, y, z:    530153.6       221057.9      -2700.000    
      closest estimate found:   0.0000000E+00  m away
 
      receiver located in slice         1128
                       in element        16725
                       in elastic domain
      at coordinates: 
      xi    =   0.548998871195523     
      eta   =  -0.261554418057536     
      gamma =    1.00000000000000     
      rotation matrix: 
      nu1 =    1.000000      0.0000000E+00  0.0000000E+00
      nu2 =   0.0000000E+00   1.000000      0.0000000E+00
      nu3 =   0.0000000E+00  0.0000000E+00   1.000000    
      UTM x:    530153.603858209     
      UTM y:    221057.926178526     
      depth:   0.000000000000000E+000  m
      z:   -2700.00000000000     
 
 
 
 station #           30     D30    KO
      original latitude:    3.791970    
      original longitude:    135.5100    
      original UTM x:    530153.0    
      original UTM y:    222048.2    
      original depth:   0.0000000E+00  m
      horizontal distance km:    29.69986    
      target x, y, z:    530153.0       222048.2      -2700.000    
      closest estimate found:   0.0000000E+00  m away
 
      receiver located in slice         1128
                       in element        18165
                       in elastic domain
      at coordinates: 
      xi    =   0.509894822516292     
      eta   =  -0.356540385471550     
      gamma =    1.00000000000000     
      rotation matrix: 
      nu1 =    1.000000      0.0000000E+00  0.0000000E+00
      nu2 =   0.0000000E+00   1.000000      0.0000000E+00
      nu3 =   0.0000000E+00  0.0000000E+00   1.000000    
      UTM x:    530153.022185485     
      UTM y:    222048.184066753     
      depth:   0.000000000000000E+000  m
      z:   -2700.00000000000     
 
 
 
 station #           31     D31    KO
      original latitude:    3.808870    
      original longitude:    135.5100    
      original UTM x:    530152.4    
      original UTM y:    223037.9    
      original depth:   0.0000000E+00  m
      horizontal distance km:    30.68953    
      target x, y, z:    530152.4       223037.9      -2700.000    
      closest estimate found:   1.1641887E-10  m away
 
      receiver located in slice         1176
                       in element        17301
                       in elastic domain
      at coordinates: 
      xi    =   0.470639511241939     
      eta   =  -0.486908998718696     
      gamma =    1.00000000000003     
      rotation matrix: 
      nu1 =    1.000000      0.0000000E+00  0.0000000E+00
      nu2 =   0.0000000E+00   1.000000      0.0000000E+00
      nu3 =   0.0000000E+00  0.0000000E+00   1.000000    
      UTM x:    530152.438262730     
      UTM y:    223037.857035615     
      depth:   9.094947017729282E-013  m
      z:   -2700.00000000000     
 
 
 
 station #           32     D32    KO
      original latitude:    3.825780    
      original longitude:    135.5100    
      original UTM x:    530151.9    
      original UTM y:    224028.1    
      original depth:   0.0000000E+00  m
      horizontal distance km:    31.67979    
      target x, y, z:    530151.9       224028.1      -2700.000    
      closest estimate found:   0.0000000E+00  m away
 
      receiver located in slice         1176
                       in element        18741
                       in elastic domain
      at coordinates: 
      xi    =   0.431186484458122     
      eta   =  -0.581811794783866     
      gamma =    1.00000000000000     
      rotation matrix: 
      nu1 =    1.000000      0.0000000E+00  0.0000000E+00
      nu2 =   0.0000000E+00   1.000000      0.0000000E+00
      nu3 =   0.0000000E+00  0.0000000E+00   1.000000    
      UTM x:    530151.851398956     
      UTM y:    224028.116298767     
      depth:   0.000000000000000E+000  m
      z:   -2700.00000000000     
 
 
 
 station #           33     D33    KO
      original latitude:    3.842680    
      original longitude:    135.5100    
      original UTM x:    530151.2    
      original UTM y:    225017.8    
      original depth:   0.0000000E+00  m
      horizontal distance km:    32.66946    
      target x, y, z:    530151.2       225017.8      -2700.000    
      closest estimate found:   5.8209437E-11  m away
 
      receiver located in slice         1224
                       in element        17877
                       in elastic domain
      at coordinates: 
      xi    =   0.391582407577254     
      eta   =  -0.712096918310733     
      gamma =   0.999999999999966     
      rotation matrix: 
      nu1 =    1.000000      0.0000000E+00  0.0000000E+00
      nu2 =   0.0000000E+00   1.000000      0.0000000E+00
      nu3 =   0.0000000E+00  0.0000000E+00   1.000000    
      UTM x:    530151.262288313     
      UTM y:    225017.790647819     
      depth:   4.547473508864641E-013  m
      z:   -2700.00000000000     
 
 
 
 station #           34     D34    KO
      original latitude:    3.859590    
      original longitude:    135.5100    
      original UTM x:    530150.7    
      original UTM y:    226008.0    
      original depth:   0.0000000E+00  m
      horizontal distance km:    33.65973    
      target x, y, z:    530150.7       226008.0      -2700.000    
      closest estimate found:   2.9103830E-11  m away
 
      receiver located in slice         1272
                       in element        17013
                       in elastic domain
      at coordinates: 
      xi    =   0.351780414960395     
      eta   =  -0.806824514751166     
      gamma =    1.00000000000000     
      rotation matrix: 
      nu1 =    1.000000      0.0000000E+00  0.0000000E+00
      nu2 =   0.0000000E+00   1.000000      0.0000000E+00
      nu3 =   0.0000000E+00  0.0000000E+00   1.000000    
      UTM x:    530150.670233673     
      UTM y:    226008.051298057     
      depth:   0.000000000000000E+000  m
      z:   -2700.00000000000     
 
 
 
 station #           35     D35    KO
      original latitude:    3.876490    
      original longitude:    135.5100    
      original UTM x:    530150.1    
      original UTM y:    226997.7    
      original depth:   0.0000000E+00  m
      horizontal distance km:    34.64940    
      target x, y, z:    530150.1       226997.7      -2700.000    
      closest estimate found:   0.0000000E+00  m away
 
      receiver located in slice         1272
                       in element        18453
                       in elastic domain
      at coordinates: 
      xi    =   0.311827584819383     
      eta   =  -0.936171526719582     
      gamma =    1.00000000000000     
      rotation matrix: 
      nu1 =    1.000000      0.0000000E+00  0.0000000E+00
      nu2 =   0.0000000E+00   1.000000      0.0000000E+00
      nu3 =   0.0000000E+00  0.0000000E+00   1.000000    
      UTM x:    530150.075935324     
      UTM y:    226997.727039449     
      depth:   0.000000000000000E+000  m
      z:   -2700.00000000000     
 
 
 
 station #           36     D36    KO
      original latitude:    3.893400    
      original longitude:    135.5100    
      original UTM x:    530149.5    
      original UTM y:    227988.0    
      original depth:   0.0000000E+00  m
      horizontal distance km:    35.63966    
      target x, y, z:    530149.5       227988.0      -2700.000    
      closest estimate found:   1.1641532E-10  m away
 
      receiver located in slice         1320
                       in element        17541
                       in elastic domain
      at coordinates: 
      xi    =   0.271676638805378     
      eta   =   0.969094226341026     
      gamma =    1.00000000000000     
      rotation matrix: 
      nu1 =    1.000000      0.0000000E+00  0.0000000E+00
      nu2 =   0.0000000E+00   1.000000      0.0000000E+00
      nu3 =   0.0000000E+00  0.0000000E+00   1.000000    
      UTM x:    530149.478690002     
      UTM y:    227987.989088929     
      depth:   0.000000000000000E+000  m
      z:   -2700.00000000000     
 
 
 
 station #           37     D37    KO
      original latitude:    3.910310    
      original longitude:    135.5100    
      original UTM x:    530148.9    
      original UTM y:    228978.2    
      original depth:   0.0000000E+00  m
      horizontal distance km:    36.62992    
      target x, y, z:    530148.9       228978.2      -2700.000    
      closest estimate found:   4.5474735E-13  m away
 
      receiver located in slice         1368
                       in element        16677
                       in elastic domain
      at coordinates: 
      xi    =   0.231351169170577     
      eta   =   0.874402588902355     
      gamma =    1.00000000000000     
      rotation matrix: 
      nu1 =    1.000000      0.0000000E+00  0.0000000E+00
      nu2 =   0.0000000E+00   1.000000      0.0000000E+00
      nu3 =   0.0000000E+00  0.0000000E+00   1.000000    
      UTM x:    530148.878848641     
      UTM y:    228978.251842798     
      depth:   4.547473508864641E-013  m
      z:   -2700.00000000000     
 
 
 
 station #           38     D38    KO
      original latitude:    3.927210    
      original longitude:    135.5100    
      original UTM x:    530148.2    
      original UTM y:    229967.9    
      original depth:   0.0000000E+00  m
      horizontal distance km:    37.61960    
      target x, y, z:    530148.2       229967.9      -2700.000    
      closest estimate found:   2.9103830E-11  m away
 
      receiver located in slice         1368
                       in element        18117
                       in elastic domain
      at coordinates: 
      xi    =   0.190875180949997     
      eta   =   0.744329417810811     
      gamma =    1.00000000000000     
      rotation matrix: 
      nu1 =    1.000000      0.0000000E+00  0.0000000E+00
      nu2 =   0.0000000E+00   1.000000      0.0000000E+00
      nu3 =   0.0000000E+00  0.0000000E+00   1.000000    
      UTM x:    530148.276768317     
      UTM y:    229967.929695688     
      depth:   0.000000000000000E+000  m
      z:   -2700.00000000000     
 
 
 
 station #           39     D39    KO
      original latitude:    3.944120    
      original longitude:    135.5100    
      original UTM x:    530147.7    
      original UTM y:    230958.2    
      original depth:   0.0000000E+00  m
      horizontal distance km:    38.60987    
      target x, y, z:    530147.7       230958.2      -2700.000    
      closest estimate found:   4.5474735E-13  m away
 
      receiver located in slice         1416
                       in element        17253
                       in elastic domain
      at coordinates: 
      xi    =   0.150200776732331     
      eta   =   0.649723525620133     
      gamma =   0.999999999999966     
      rotation matrix: 
      nu1 =    1.000000      0.0000000E+00  0.0000000E+00
      nu2 =   0.0000000E+00   1.000000      0.0000000E+00
      nu3 =   0.0000000E+00  0.0000000E+00   1.000000    
      UTM x:    530147.671736554     
      UTM y:    230958.193867033     
      depth:   4.547473508864641E-013  m
      z:   -2700.00000000000     
 
 
 
 station #           40     D40    KO
      original latitude:    3.961020    
      original longitude:    135.5100    
      original UTM x:    530147.1    
      original UTM y:    231947.9    
      original depth:   0.0000000E+00  m
      horizontal distance km:    39.59955    
      target x, y, z:    530147.1       231947.9      -2700.000    
      closest estimate found:   0.0000000E+00  m away
 
      receiver located in slice         1416
                       in element        18693
                       in elastic domain
      at coordinates: 
      xi    =   0.109376066606961     
      eta   =   0.519736416415883     
      gamma =    1.00000000000000     
      rotation matrix: 
      nu1 =    1.000000      0.0000000E+00  0.0000000E+00
      nu2 =   0.0000000E+00   1.000000      0.0000000E+00
      nu3 =   0.0000000E+00  0.0000000E+00   1.000000    
      UTM x:    530147.064468991     
      UTM y:    231947.873142634     
      depth:   0.000000000000000E+000  m
      z:   -2700.00000000000     
 
 
 
 station #           41     D41    KO
      original latitude:    3.977930    
      original longitude:    135.5100    
      original UTM x:    530146.4    
      original UTM y:    232938.1    
      original depth:   0.0000000E+00  m
      horizontal distance km:    40.58981    
      target x, y, z:    530146.4       232938.1      -2700.000    
      closest estimate found:   0.0000000E+00  m away
 
      receiver located in slice         1464
                       in element        17829
                       in elastic domain
      at coordinates: 
      xi    =   6.835274048493940E-002
      eta   =   0.426162184157797     
      gamma =    1.00000000000000     
      rotation matrix: 
      nu1 =    1.000000      0.0000000E+00  0.0000000E+00
      nu2 =   0.0000000E+00   1.000000      0.0000000E+00
      nu3 =   0.0000000E+00  0.0000000E+00   1.000000    
      UTM x:    530146.454247015     
      UTM y:    232938.138743607     
      depth:   0.000000000000000E+000  m
      z:   -2700.00000000000     
 
 
 
 station #           42     D42    KO
      original latitude:    3.994830    
      original longitude:    135.5100    
      original UTM x:    530145.8    
      original UTM y:    233927.8    
      original depth:   0.0000000E+00  m
      horizontal distance km:    41.57949    
      target x, y, z:    530145.8       233927.8      -2700.000    
      closest estimate found:   0.0000000E+00  m away
 
      receiver located in slice         1512
                       in element        16965
                       in elastic domain
      at coordinates: 
      xi    =   2.717932118024646E-002
      eta   =   0.296261871457170     
      gamma =    1.00000000000000     
      rotation matrix: 
      nu1 =    1.000000      0.0000000E+00  0.0000000E+00
      nu2 =   0.0000000E+00   1.000000      0.0000000E+00
      nu3 =   0.0000000E+00  0.0000000E+00   1.000000    
      UTM x:    530145.841792403     
      UTM y:    233927.819454063     
      depth:   0.000000000000000E+000  m
      z:   -2700.00000000000     
 
 
 
 station #           43     D43    KO
      original latitude:    4.011740    
      original longitude:    135.5100    
      original UTM x:    530145.2    
      original UTM y:    234918.1    
      original depth:   0.0000000E+00  m
      horizontal distance km:    42.56976    
      target x, y, z:    530145.2       234918.1      -2700.000    
      closest estimate found:   0.0000000E+00  m away
 
      receiver located in slice         1512
                       in element        18405
                       in elastic domain
      at coordinates: 
      xi    =  -1.419291404240272E-002
      eta   =   0.201829674945958     
      gamma =    1.00000000000000     
      rotation matrix: 
      nu1 =    1.000000      0.0000000E+00  0.0000000E+00
      nu2 =   0.0000000E+00   1.000000      0.0000000E+00
      nu3 =   0.0000000E+00  0.0000000E+00   1.000000    
      UTM x:    530145.226380404     
      UTM y:    234918.086496814     
      depth:   0.000000000000000E+000  m
      z:   -2700.00000000000     
 
 
 
 station #           44     D44    KO
      original latitude:    4.028640    
      original longitude:    135.5100    
      original UTM x:    530144.6    
      original UTM y:    235907.8    
      original depth:   0.0000000E+00  m
      horizontal distance km:    43.55944    
      target x, y, z:    530144.6       235907.8      -2700.000    
      closest estimate found:   2.9103830E-11  m away
 
      receiver located in slice         1560
                       in element        17541
                       in elastic domain
      at coordinates: 
      xi    =  -5.571502969921136E-002
      eta   =   7.201689322758995E-002
      gamma =    1.00000000000000     
      rotation matrix: 
      nu1 =    1.000000      0.0000000E+00  0.0000000E+00
      nu2 =   0.0000000E+00   1.000000      0.0000000E+00
      nu3 =   0.0000000E+00  0.0000000E+00   1.000000    
      UTM x:    530144.608738933     
      UTM y:    235907.768654266     
      depth:   0.000000000000000E+000  m
      z:   -2700.00000000000     
 
 
 
 station #           45     D45    KO
      original latitude:    4.045550    
      original longitude:    135.5100    
      original UTM x:    530144.0    
      original UTM y:    236898.0    
      original depth:   0.0000000E+00  m
      horizontal distance km:    44.54971    
      target x, y, z:    530144.0       236898.0      -2700.000    
      closest estimate found:   2.9103830E-11  m away
 
      receiver located in slice         1608
                       in element        16677
                       in elastic domain
      at coordinates: 
      xi    =  -9.743616113267024E-002
      eta   =  -2.232735308454089E-002
      gamma =    1.00000000000000     
      rotation matrix: 
      nu1 =    1.000000      0.0000000E+00  0.0000000E+00
      nu2 =   0.0000000E+00   1.000000      0.0000000E+00
      nu3 =   0.0000000E+00  0.0000000E+00   1.000000    
      UTM x:    530143.988137103     
      UTM y:    236898.037150944     
      depth:   0.000000000000000E+000  m
      z:   -2700.00000000000     
 
 
 
 station #           46     D46    KO
      original latitude:    4.062460    
      original longitude:    135.5100    
      original UTM x:    530143.4    
      original UTM y:    237888.3    
      original depth:   0.0000000E+00  m
      horizontal distance km:    45.53998    
      target x, y, z:    530143.4       237888.3      -2700.000    
      closest estimate found:   5.8209437E-11  m away
 
      receiver located in slice         1608
                       in element        18117
                       in elastic domain
      at coordinates: 
      xi    =  -0.139331787386361     
      eta   =  -0.116627335659315     
      gamma =   0.999999999999966     
      rotation matrix: 
      nu1 =    1.000000      0.0000000E+00  0.0000000E+00
      nu2 =   0.0000000E+00   1.000000      0.0000000E+00
      nu3 =   0.0000000E+00  0.0000000E+00   1.000000    
      UTM x:    530143.364939663     
      UTM y:    237888.306379357     
      depth:   4.547473508864641E-013  m
      z:   -2700.00000000000     
 
 
 
 station #           47     D47    KO
      original latitude:    4.079360    
      original longitude:    135.5100    
      original UTM x:    530142.8    
      original UTM y:    238878.0    
      original depth:   0.0000000E+00  m
      horizontal distance km:    46.52966    
      target x, y, z:    530142.8       238878.0      -2700.000    
      closest estimate found:   0.0000000E+00  m away
 
      receiver located in slice         1656
                       in element        17253
                       in elastic domain
      at coordinates: 
      xi    =  -0.181376974802746     
      eta   =  -0.245951075017030     
      gamma =    1.00000000000000     
      rotation matrix: 
      nu1 =    1.000000      0.0000000E+00  0.0000000E+00
      nu2 =   0.0000000E+00   1.000000      0.0000000E+00
      nu3 =   0.0000000E+00  0.0000000E+00   1.000000    
      UTM x:    530142.739517500     
      UTM y:    238877.990730284     
      depth:   0.000000000000000E+000  m
      z:   -2700.00000000000     
 
 
 
 station #           48     D48    KO
      original latitude:    4.096270    
      original longitude:    135.5100    
      original UTM x:    530142.1    
      original UTM y:    239868.3    
      original depth:   0.0000000E+00  m
      horizontal distance km:    47.51994    
      target x, y, z:    530142.1       239868.3      -2700.000    
      closest estimate found:   0.0000000E+00  m away
 
      receiver located in slice         1656
                       in element        18693
                       in elastic domain
      at coordinates: 
      xi    =  -0.223621477709473     
      eta   =  -0.339573181466503     
      gamma =    1.00000000000000     
      rotation matrix: 
      nu1 =    1.000000      0.0000000E+00  0.0000000E+00
      nu2 =   0.0000000E+00   1.000000      0.0000000E+00
      nu3 =   0.0000000E+00  0.0000000E+00   1.000000    
      UTM x:    530142.111130519     
      UTM y:    239868.261430844     
      depth:   0.000000000000000E+000  m
      z:   -2700.00000000000     
 
 
 
 station #           49     D49    KO
      original latitude:    4.113170    
      original longitude:    135.5100    
      original UTM x:    530141.5    
      original UTM y:    240858.0    
      original depth:   0.0000000E+00  m
      horizontal distance km:    48.50962    
      target x, y, z:    530141.5       240858.0      -2700.000    
      closest estimate found:   0.0000000E+00  m away
 
      receiver located in slice         1704
                       in element        17829
                       in elastic domain
      at coordinates: 
      xi    =  -0.266015328889509     
      eta   =  -0.469163909885274     
      gamma =    1.00000000000000     
      rotation matrix: 
      nu1 =    1.000000      0.0000000E+00  0.0000000E+00
      nu2 =   0.0000000E+00   1.000000      0.0000000E+00
      nu3 =   0.0000000E+00  0.0000000E+00   1.000000    
      UTM x:    530141.480521983     
      UTM y:    240857.947259115     
      depth:   0.000000000000000E+000  m
      z:   -2700.00000000000     
 
 
 
 station #           50     D50    KO
      original latitude:    4.130080    
      original longitude:    135.5100    
      original UTM x:    530140.9    
      original UTM y:    241848.2    
      original depth:   0.0000000E+00  m
      horizontal distance km:    49.49989    
      target x, y, z:    530140.9       241848.2      -2700.000    
      closest estimate found:   0.0000000E+00  m away
 
      receiver located in slice         1752
                       in element        16965
                       in elastic domain
      at coordinates: 
      xi    =  -0.308608695277709     
      eta   =  -0.563285053179311     
      gamma =    1.00000000000000     
      rotation matrix: 
      nu1 =    1.000000      0.0000000E+00  0.0000000E+00
      nu2 =   0.0000000E+00   1.000000      0.0000000E+00
      nu3 =   0.0000000E+00  0.0000000E+00   1.000000    
      UTM x:    530140.846945658     
      UTM y:    241848.219443965     
      depth:   0.000000000000000E+000  m
      z:   -2700.00000000000     
 
 
 
 station #           51     SEIS    KO
      original latitude:    3.918760    
      original longitude:    135.5100    
      original UTM x:    530148.6    
      original UTM y:    229473.1    
      original depth:   0.0000000E+00  m
      horizontal distance km:    37.12476    
      target x, y, z:    530148.6       229473.1      -2700.000    
      closest estimate found:   0.0000000E+00  m away
 
      receiver located in slice         1368
                       in element        17397
                       in elastic domain
      at coordinates: 
      xi    =   0.211134964130631     
      eta   =   0.809743325458553     
      gamma =    1.00000000000000     
      rotation matrix: 
      nu1 =    1.000000      0.0000000E+00  0.0000000E+00
      nu2 =   0.0000000E+00   1.000000      0.0000000E+00
      nu3 =   0.0000000E+00  0.0000000E+00   1.000000    
      UTM x:    530148.578132591     
      UTM y:    229473.090680729     
      depth:   0.000000000000000E+000  m
      z:   -2700.00000000000     
 
 
 maximum error in location of all the receivers:   1.1641887E-10  m
 
 Elapsed time for receiver detection in seconds =   0.238048793980852     
 
 End of receiver detection - done
 
 source arrays:
   number of sources is            1
   size of source array                 =   1.4305115E-03 MB
                                        =   1.3969839E-06 GB
 
 seismograms:
   seismograms written by all processes
   writing out seismograms at every NTSTEP_BETWEEN_OUTPUT_SEISMOS =         5000
   maximum number of local receivers is            3  in slice         1368
   size of maximum seismogram array       =   0.1716614     MB
                                          =   1.6763806E-04 GB
 
 
 Total number of samples for seismograms =       190000
 
 found a total of           51  receivers in all the slices
 
 
 Simulation setup:
 
   no acoustic simulation
 incorporating elastic simulation
   no poroelastic simulation
 
   no attenuation
   no anisotropy
   no oceans
   no gravity
   no movie simulation
 
 
   no dynamic faults
   no kinematic faults
 
   no gravity simulation
 
 
 Elapsed time for preparing timerun in seconds =   7.400104403495789E-002
 
 ************
  time loop
 ************
               scheme:         Newmark
 
            time step:   7.5000001E-04  s
 number of time steps:       190000
 total simulated time:    142.5000      seconds
 start time:  0.0000000E+00  seconds
 
 All processes are synchronized before time loop
 
 Starting time iteration loop...
 
 Time step #            5
 Time:   3.0000000E-03  seconds
 Elapsed time in seconds =    1.33191033196636     
 Elapsed time in hh:mm:ss =      0 h 00 m 01 s
 Mean elapsed time per time step in seconds =   0.2663821    
 Max norm displacement vector U in all slices (m) =   3.9931264E-16
 Time steps done =            5  out of       190000
 Time steps remaining =       189995
 Estimated remaining time in seconds =    50611.26    
 Estimated remaining time in hh:mm:ss =     14 h 03 m 31 s
 Estimated total run time in seconds =    50612.59    
 Estimated total run time in hh:mm:ss =     14 h 03 m 32 s
 We have done   2.6315791E-03 % of that
 The run will finish approximately on (in local time): Thu Mar 05, 2020 07:52
 ************************************************************
 **** BEWARE: the above time estimates are not very reliable
 **** because fewer than 100 iterations have been performed
 ************************************************************
 
 Time step #          500
 Time:   0.3742500      seconds
 Elapsed time in seconds =    150.204153150902     
 Elapsed time in hh:mm:ss =      0 h 02 m 30 s
 Mean elapsed time per time step in seconds =   0.3004083    
 Max norm displacement vector U in all slices (m) =   2.7837434E-05
 Time steps done =          500  out of       190000
 Time steps remaining =       189500
 Estimated remaining time in seconds =    56927.38    
 Estimated remaining time in hh:mm:ss =     15 h 48 m 47 s
 Estimated total run time in seconds =    57077.58    
 Estimated total run time in hh:mm:ss =     15 h 51 m 17 s
 We have done   0.2631579     % of that
 The run will finish approximately on (in local time): Thu Mar 05, 2020 09:39
 
 Time step #         1000
 Time:   0.7492500      seconds
 Elapsed time in seconds =    300.451696652919     
 Elapsed time in hh:mm:ss =      0 h 05 m 00 s
 Mean elapsed time per time step in seconds =   0.3004517    
 Max norm displacement vector U in all slices (m) =   1.1709705E-04
 Time steps done =         1000  out of       190000
 Time steps remaining =       189000
 Estimated remaining time in seconds =    56785.37    
 Estimated remaining time in hh:mm:ss =     15 h 46 m 25 s
 Estimated total run time in seconds =    57085.82    
 Estimated total run time in hh:mm:ss =     15 h 51 m 25 s
 We have done   0.5263158     % of that
 The run will finish approximately on (in local time): Thu Mar 05, 2020 09:39
 
 Time step #         1500
 Time:    1.124250      seconds
 Elapsed time in seconds =    449.485798349953     
 Elapsed time in hh:mm:ss =      0 h 07 m 29 s
 Mean elapsed time per time step in seconds =   0.2996572    
 Max norm displacement vector U in all slices (m) =   1.2430015E-04
 Time steps done =         1500  out of       190000
 Time steps remaining =       188500
 Estimated remaining time in seconds =    56485.38    
 Estimated remaining time in hh:mm:ss =     15 h 41 m 25 s
 Estimated total run time in seconds =    56934.87    
 Estimated total run time in hh:mm:ss =     15 h 48 m 54 s
 We have done   0.7894737     % of that
 The run will finish approximately on (in local time): Thu Mar 05, 2020 09:36
 
 Time step #         2000
 Time:    1.499250      seconds
 Elapsed time in seconds =    599.047978839953     
 Elapsed time in hh:mm:ss =      0 h 09 m 59 s
 Mean elapsed time per time step in seconds =   0.2995240    
 Max norm displacement vector U in all slices (m) =   1.2430112E-04
 Time steps done =         2000  out of       190000
 Time steps remaining =       188000
 Estimated remaining time in seconds =    56310.51    
 Estimated remaining time in hh:mm:ss =     15 h 38 m 30 s
 Estimated total run time in seconds =    56909.56    
 Estimated total run time in hh:mm:ss =     15 h 48 m 29 s
 We have done    1.052632     % of that
 The run will finish approximately on (in local time): Thu Mar 05, 2020 09:37
 
 Time step #         2500
 Time:    1.874250      seconds
 Elapsed time in seconds =    748.902855132939     
 Elapsed time in hh:mm:ss =      0 h 12 m 28 s
 Mean elapsed time per time step in seconds =   0.2995611    
 Max norm displacement vector U in all slices (m) =   1.2430111E-04
 Time steps done =         2500  out of       190000
 Time steps remaining =       187500
 Estimated remaining time in seconds =    56167.71    
 Estimated remaining time in hh:mm:ss =     15 h 36 m 07 s
 Estimated total run time in seconds =    56916.62    
 Estimated total run time in hh:mm:ss =     15 h 48 m 36 s
 We have done    1.315789     % of that
 The run will finish approximately on (in local time): Thu Mar 05, 2020 09:36
 
 Time step #         3000
 Time:    2.249250      seconds
 Elapsed time in seconds =    898.357089266996     
 Elapsed time in hh:mm:ss =      0 h 14 m 58 s
 Mean elapsed time per time step in seconds =   0.2994524    
 Max norm displacement vector U in all slices (m) =   1.2430103E-04
 Time steps done =         3000  out of       190000
 Time steps remaining =       187000
 Estimated remaining time in seconds =    55997.59    
 Estimated remaining time in hh:mm:ss =     15 h 33 m 17 s
 Estimated total run time in seconds =    56895.95    
 Estimated total run time in hh:mm:ss =     15 h 48 m 15 s
 We have done    1.578947     % of that
 The run will finish approximately on (in local time): Thu Mar 05, 2020 09:36
 
 Time step #         3500
 Time:    2.624250      seconds
 Elapsed time in seconds =    1048.28623651795     
 Elapsed time in hh:mm:ss =      0 h 17 m 28 s
 Mean elapsed time per time step in seconds =   0.2995104    
 Max norm displacement vector U in all slices (m) =   1.2430125E-04
 Time steps done =         3500  out of       190000
 Time steps remaining =       186500
 Estimated remaining time in seconds =    55858.68    
 Estimated remaining time in hh:mm:ss =     15 h 30 m 58 s
 Estimated total run time in seconds =    56906.97    
 Estimated total run time in hh:mm:ss =     15 h 48 m 26 s
 We have done    1.842105     % of that
 The run will finish approximately on (in local time): Thu Mar 05, 2020 09:36
 
 Time step #         4000
 Time:    2.999250      seconds
 Elapsed time in seconds =    1197.09459930891     
 Elapsed time in hh:mm:ss =      0 h 19 m 57 s
 Mean elapsed time per time step in seconds =   0.2992736    
 Max norm displacement vector U in all slices (m) =   1.2430119E-04
 Time steps done =         4000  out of       190000
 Time steps remaining =       186000
 Estimated remaining time in seconds =    55664.90    
 Estimated remaining time in hh:mm:ss =     15 h 27 m 44 s
 Estimated total run time in seconds =    56861.99    
 Estimated total run time in hh:mm:ss =     15 h 47 m 41 s
 We have done    2.105263     % of that
 The run will finish approximately on (in local time): Thu Mar 05, 2020 09:36
 
 Time step #         4500
 Time:    3.374250      seconds
 Elapsed time in seconds =    1346.29814855091     
 Elapsed time in hh:mm:ss =      0 h 22 m 26 s
 Mean elapsed time per time step in seconds =   0.2991774    
 Max norm displacement vector U in all slices (m) =   1.2430109E-04
 Time steps done =         4500  out of       190000
 Time steps remaining =       185500
 Estimated remaining time in seconds =    55497.40    
 Estimated remaining time in hh:mm:ss =     15 h 24 m 57 s
 Estimated total run time in seconds =    56843.70    
 Estimated total run time in hh:mm:ss =     15 h 47 m 23 s
 We have done    2.368421     % of that
 The run will finish approximately on (in local time): Thu Mar 05, 2020 09:35
 
 Time step #         5000
 Time:    3.749250      seconds
 Elapsed time in seconds =    1495.35268977401     
 Elapsed time in hh:mm:ss =      0 h 24 m 55 s
 Mean elapsed time per time step in seconds =   0.2990705    
 Max norm displacement vector U in all slices (m) =   1.2430119E-04
 Time steps done =         5000  out of       190000
 Time steps remaining =       185000
 Estimated remaining time in seconds =    55328.05    
 Estimated remaining time in hh:mm:ss =     15 h 22 m 08 s
 Estimated total run time in seconds =    56823.40    
 Estimated total run time in hh:mm:ss =     15 h 47 m 03 s
 We have done    2.631579     % of that
 The run will finish approximately on (in local time): Thu Mar 05, 2020 09:35
 
 
 Total number of time steps written:         5000
 Writing the seismograms in parallel took   0.5259464      seconds
 
 Time step #         5500
 Time:    4.124250      seconds
 Elapsed time in seconds =    1646.83761572593     
 Elapsed time in hh:mm:ss =      0 h 27 m 26 s
 Mean elapsed time per time step in seconds =   0.2994250    
 Max norm displacement vector U in all slices (m) =   1.2430116E-04
 Time steps done =         5500  out of       190000
 Time steps remaining =       184500
 Estimated remaining time in seconds =    55243.92    
 Estimated remaining time in hh:mm:ss =     15 h 20 m 43 s
 Estimated total run time in seconds =    56890.75    
 Estimated total run time in hh:mm:ss =     15 h 48 m 10 s
 We have done    2.894737     % of that
 The run will finish approximately on (in local time): Thu Mar 05, 2020 09:36
 
 Time step #         6000
 Time:    4.499250      seconds
 Elapsed time in seconds =    1797.25673197501     
 Elapsed time in hh:mm:ss =      0 h 29 m 57 s
 Mean elapsed time per time step in seconds =   0.2995428    
 Max norm displacement vector U in all slices (m) =   1.2430112E-04
 Time steps done =         6000  out of       190000
 Time steps remaining =       184000
 Estimated remaining time in seconds =    55115.88    
 Estimated remaining time in hh:mm:ss =     15 h 18 m 35 s
 Estimated total run time in seconds =    56913.13    
 Estimated total run time in hh:mm:ss =     15 h 48 m 33 s
 We have done    3.157895     % of that
 The run will finish approximately on (in local time): Thu Mar 05, 2020 09:37
 
 Time step #         6500
 Time:    4.874250      seconds
 Elapsed time in seconds =    1948.34429198992     
 Elapsed time in hh:mm:ss =      0 h 32 m 28 s
 Mean elapsed time per time step in seconds =   0.2997453    
 Max norm displacement vector U in all slices (m) =   1.2430108E-04
 Time steps done =         6500  out of       190000
 Time steps remaining =       183500
 Estimated remaining time in seconds =    55003.26    
 Estimated remaining time in hh:mm:ss =     15 h 16 m 43 s
 Estimated total run time in seconds =    56951.60    
 Estimated total run time in hh:mm:ss =     15 h 49 m 11 s
 We have done    3.421053     % of that
 The run will finish approximately on (in local time): Thu Mar 05, 2020 09:37
 
 Time step #         7000
 Time:    5.249250      seconds
 Elapsed time in seconds =    2099.54528901493     
 Elapsed time in hh:mm:ss =      0 h 34 m 59 s
 Mean elapsed time per time step in seconds =   0.2999350    
 Max norm displacement vector U in all slices (m) =   1.2430115E-04
 Time steps done =         7000  out of       190000
 Time steps remaining =       183000
 Estimated remaining time in seconds =    54888.11    
 Estimated remaining time in hh:mm:ss =     15 h 14 m 48 s
 Estimated total run time in seconds =    56987.66    
 Estimated total run time in hh:mm:ss =     15 h 49 m 47 s
 We have done    3.684211     % of that
 The run will finish approximately on (in local time): Thu Mar 05, 2020 09:38
 
 Time step #         7500
 Time:    5.624250      seconds
 Elapsed time in seconds =    2250.75917232397     
 Elapsed time in hh:mm:ss =      0 h 37 m 30 s
 Mean elapsed time per time step in seconds =   0.3001012    
 Max norm displacement vector U in all slices (m) =   1.2430102E-04
 Time steps done =         7500  out of       190000
 Time steps remaining =       182500
 Estimated remaining time in seconds =    54768.47    
 Estimated remaining time in hh:mm:ss =     15 h 12 m 48 s
 Estimated total run time in seconds =    57019.23    
 Estimated total run time in hh:mm:ss =     15 h 50 m 19 s
 We have done    3.947368     % of that
 The run will finish approximately on (in local time): Thu Mar 05, 2020 09:38
 
 Time step #         8000
 Time:    5.999250      seconds
 Elapsed time in seconds =    2401.92289968696     
 Elapsed time in hh:mm:ss =      0 h 40 m 01 s
 Mean elapsed time per time step in seconds =   0.3002404    
 Max norm displacement vector U in all slices (m) =   1.2430105E-04
 Time steps done =         8000  out of       190000
 Time steps remaining =       182000
 Estimated remaining time in seconds =    54643.75    
 Estimated remaining time in hh:mm:ss =     15 h 10 m 43 s
 Estimated total run time in seconds =    57045.67    
 Estimated total run time in hh:mm:ss =     15 h 50 m 45 s
 We have done    4.210526     % of that
 The run will finish approximately on (in local time): Thu Mar 05, 2020 09:39
 
 Time step #         8500
 Time:    6.374250      seconds
 Elapsed time in seconds =    2552.55382629891     
 Elapsed time in hh:mm:ss =      0 h 42 m 32 s
 Mean elapsed time per time step in seconds =   0.3003004    
 Max norm displacement vector U in all slices (m) =   1.2430109E-04
 Time steps done =         8500  out of       190000
 Time steps remaining =       181500
 Estimated remaining time in seconds =    54504.53    
 Estimated remaining time in hh:mm:ss =     15 h 08 m 24 s
 Estimated total run time in seconds =    57057.09    
 Estimated total run time in hh:mm:ss =     15 h 50 m 57 s
 We have done    4.473684     % of that
 The run will finish approximately on (in local time): Thu Mar 05, 2020 09:38
 
 Time step #         9000
 Time:    6.749250      seconds
 Elapsed time in seconds =    2702.69543817290     
 Elapsed time in hh:mm:ss =      0 h 45 m 02 s
 Mean elapsed time per time step in seconds =   0.3002995    
 Max norm displacement vector U in all slices (m) =   1.2430102E-04
 Time steps done =         9000  out of       190000
 Time steps remaining =       181000
 Estimated remaining time in seconds =    54354.21    
 Estimated remaining time in hh:mm:ss =     15 h 05 m 54 s
 Estimated total run time in seconds =    57056.90    
 Estimated total run time in hh:mm:ss =     15 h 50 m 56 s
 We have done    4.736842     % of that
 The run will finish approximately on (in local time): Thu Mar 05, 2020 09:39
 
 Time step #         9500
 Time:    7.124250      seconds
 Elapsed time in seconds =    2852.57224222098     
 Elapsed time in hh:mm:ss =      0 h 47 m 32 s
 Mean elapsed time per time step in seconds =   0.3002708    
 Max norm displacement vector U in all slices (m) =   1.2430118E-04
 Time steps done =         9500  out of       190000
 Time steps remaining =       180500
 Estimated remaining time in seconds =    54198.87    
 Estimated remaining time in hh:mm:ss =     15 h 03 m 18 s
 Estimated total run time in seconds =    57051.45    
 Estimated total run time in hh:mm:ss =     15 h 50 m 51 s
 We have done    5.000000     % of that
 The run will finish approximately on (in local time): Thu Mar 05, 2020 09:38
 
 Time step #        10000
 Time:    7.499250      seconds
 Elapsed time in seconds =    3002.47627007298     
 Elapsed time in hh:mm:ss =      0 h 50 m 02 s
 Mean elapsed time per time step in seconds =   0.3002476    
 Max norm displacement vector U in all slices (m) =   1.2430122E-04
 Time steps done =        10000  out of       190000
 Time steps remaining =       180000
 Estimated remaining time in seconds =    54044.57    
 Estimated remaining time in hh:mm:ss =     15 h 00 m 44 s
 Estimated total run time in seconds =    57047.05    
 Estimated total run time in hh:mm:ss =     15 h 50 m 47 s
 We have done    5.263158     % of that
 The run will finish approximately on (in local time): Thu Mar 05, 2020 09:39
 
 
 Total number of time steps written:        10000
 Writing the seismograms in parallel took   5.9574028E-05  seconds
 
 Time step #        10500
 Time:    7.874250      seconds
 Elapsed time in seconds =    3152.75557598192     
 Elapsed time in hh:mm:ss =      0 h 52 m 32 s
 Mean elapsed time per time step in seconds =   0.3002624    
 Max norm displacement vector U in all slices (m) =   1.2430102E-04
 Time steps done =        10500  out of       190000
 Time steps remaining =       179500
 Estimated remaining time in seconds =    53897.11    
 Estimated remaining time in hh:mm:ss =     14 h 58 m 17 s
 Estimated total run time in seconds =    57049.86    
 Estimated total run time in hh:mm:ss =     15 h 50 m 49 s
 We have done    5.526316     % of that
 The run will finish approximately on (in local time): Thu Mar 05, 2020 09:38
 
 Time step #        11000
 Time:    8.249250      seconds
 Elapsed time in seconds =    3302.91156426992     
 Elapsed time in hh:mm:ss =      0 h 55 m 02 s
 Mean elapsed time per time step in seconds =   0.3002647    
 Max norm displacement vector U in all slices (m) =   1.2430115E-04
 Time steps done =        11000  out of       190000
 Time steps remaining =       179000
 Estimated remaining time in seconds =    53747.38    
 Estimated remaining time in hh:mm:ss =     14 h 55 m 47 s
 Estimated total run time in seconds =    57050.29    
 Estimated total run time in hh:mm:ss =     15 h 50 m 50 s
 We have done    5.789474     % of that
 The run will finish approximately on (in local time): Thu Mar 05, 2020 09:39
 
 Time step #        11500
 Time:    8.624250      seconds
 Elapsed time in seconds =    3452.23652494792     
 Elapsed time in hh:mm:ss =      0 h 57 m 32 s
 Mean elapsed time per time step in seconds =   0.3001945    
 Max norm displacement vector U in all slices (m) =   1.2430122E-04
 Time steps done =        11500  out of       190000
 Time steps remaining =       178500
 Estimated remaining time in seconds =    53584.71    
 Estimated remaining time in hh:mm:ss =     14 h 53 m 04 s
 Estimated total run time in seconds =    57036.95    
 Estimated total run time in hh:mm:ss =     15 h 50 m 36 s
 We have done    6.052631     % of that
 The run will finish approximately on (in local time): Thu Mar 05, 2020 09:38
 
 Time step #        12000
 Time:    8.999250      seconds
 Elapsed time in seconds =    3601.54600793892     
 Elapsed time in hh:mm:ss =      1 h 00 m 01 s
 Mean elapsed time per time step in seconds =   0.3001288    
 Max norm displacement vector U in all slices (m) =   1.2430108E-04
 Time steps done =        12000  out of       190000
 Time steps remaining =       178000
 Estimated remaining time in seconds =    53422.93    
 Estimated remaining time in hh:mm:ss =     14 h 50 m 22 s
 Estimated total run time in seconds =    57024.48    
 Estimated total run time in hh:mm:ss =     15 h 50 m 24 s
 We have done    6.315790     % of that
 The run will finish approximately on (in local time): Thu Mar 05, 2020 09:38
 
 Time step #        12500
 Time:    9.374250      seconds
 Elapsed time in seconds =    3750.91074505891     
 Elapsed time in hh:mm:ss =      1 h 02 m 30 s
 Mean elapsed time per time step in seconds =   0.3000728    
 Max norm displacement vector U in all slices (m) =   1.2430111E-04
 Time steps done =        12500  out of       190000
 Time steps remaining =       177500
 Estimated remaining time in seconds =    53262.93    
 Estimated remaining time in hh:mm:ss =     14 h 47 m 42 s
 Estimated total run time in seconds =    57013.84    
 Estimated total run time in hh:mm:ss =     15 h 50 m 13 s
 We have done    6.578948     % of that
 The run will finish approximately on (in local time): Thu Mar 05, 2020 09:38
 
 Time step #        13000
 Time:    9.749250      seconds
 Elapsed time in seconds =    3904.29386912694     
 Elapsed time in hh:mm:ss =      1 h 05 m 04 s
 Mean elapsed time per time step in seconds =   0.3003303    
 Max norm displacement vector U in all slices (m) =   1.2430125E-04
 Time steps done =        13000  out of       190000
 Time steps remaining =       177000
 Estimated remaining time in seconds =    53158.46    
 Estimated remaining time in hh:mm:ss =     14 h 45 m 58 s
 Estimated total run time in seconds =    57062.76    
 Estimated total run time in hh:mm:ss =     15 h 51 m 02 s
 We have done    6.842105     % of that
 The run will finish approximately on (in local time): Thu Mar 05, 2020 09:39
 
 Time step #        13500
 Time:    10.12425      seconds
[...]
 Elapsed time in seconds =    53226.5495060820     
 Elapsed time in hh:mm:ss =     14 h 47 m 06 s
 Mean elapsed time per time step in seconds =   0.3007150    
 Max norm displacement vector U in all slices (m) =   1.2430090E-04
 Time steps done =       177000  out of       190000
 Time steps remaining =        13000
 Estimated remaining time in seconds =    3909.295    
 Estimated remaining time in hh:mm:ss =      1 h 05 m 09 s
 Estimated total run time in seconds =    57135.84    
 Estimated total run time in hh:mm:ss =     15 h 52 m 15 s
 We have done    93.15790     % of that
 The run will finish approximately on (in local time): Thu Mar 05, 2020 09:40
 
 Time step #       177500
 Time:    133.1243      seconds
 Elapsed time in seconds =    53377.0905624729     
 Elapsed time in hh:mm:ss =     14 h 49 m 37 s
 Mean elapsed time per time step in seconds =   0.3007160    
 Max norm displacement vector U in all slices (m) =   1.2430124E-04
 Time steps done =       177500  out of       190000
 Time steps remaining =        12500
 Estimated remaining time in seconds =    3758.950    
 Estimated remaining time in hh:mm:ss =      1 h 02 m 38 s
 Estimated total run time in seconds =    57136.04    
 Estimated total run time in hh:mm:ss =     15 h 52 m 16 s
 We have done    93.42105     % of that
 The run will finish approximately on (in local time): Thu Mar 05, 2020 09:40
 
 Time step #       178000
 Time:    133.4993      seconds
 Elapsed time in seconds =    53527.5934310770     
 Elapsed time in hh:mm:ss =     14 h 52 m 07 s
 Mean elapsed time per time step in seconds =   0.3007168    
 Max norm displacement vector U in all slices (m) =   1.2430116E-04
 Time steps done =       178000  out of       190000
 Time steps remaining =        12000
 Estimated remaining time in seconds =    3608.602    
 Estimated remaining time in hh:mm:ss =      1 h 00 m 08 s
 Estimated total run time in seconds =    57136.20    
 Estimated total run time in hh:mm:ss =     15 h 52 m 16 s
 We have done    93.68421     % of that
 The run will finish approximately on (in local time): Thu Mar 05, 2020 09:40
 
 Time step #       178500
 Time:    133.8743      seconds
 Elapsed time in seconds =    53678.3249103019     
 Elapsed time in hh:mm:ss =     14 h 54 m 38 s
 Mean elapsed time per time step in seconds =   0.3007189    
 Max norm displacement vector U in all slices (m) =   1.2430096E-04
 Time steps done =       178500  out of       190000
 Time steps remaining =        11500
 Estimated remaining time in seconds =    3458.267    
 Estimated remaining time in hh:mm:ss =      0 h 57 m 38 s
 Estimated total run time in seconds =    57136.59    
 Estimated total run time in hh:mm:ss =     15 h 52 m 16 s
 We have done    93.94736     % of that
 The run will finish approximately on (in local time): Thu Mar 05, 2020 09:40
 
 Time step #       179000
 Time:    134.2493      seconds
 Elapsed time in seconds =    53828.9615716489     
 Elapsed time in hh:mm:ss =     14 h 57 m 08 s
 Mean elapsed time per time step in seconds =   0.3007205    
 Max norm displacement vector U in all slices (m) =   1.2430124E-04
 Time steps done =       179000  out of       190000
 Time steps remaining =        11000
 Estimated remaining time in seconds =    3307.925    
 Estimated remaining time in hh:mm:ss =      0 h 55 m 07 s
 Estimated total run time in seconds =    57136.89    
 Estimated total run time in hh:mm:ss =     15 h 52 m 16 s
 We have done    94.21053     % of that
 The run will finish approximately on (in local time): Thu Mar 05, 2020 09:40
 
 Time step #       179500
 Time:    134.6243      seconds
 Elapsed time in seconds =    53978.9028226150     
 Elapsed time in hh:mm:ss =     14 h 59 m 38 s
 Mean elapsed time per time step in seconds =   0.3007181    
 Max norm displacement vector U in all slices (m) =   1.2430132E-04
 Time steps done =       179500  out of       190000
 Time steps remaining =        10500
 Estimated remaining time in seconds =    3157.540    
 Estimated remaining time in hh:mm:ss =      0 h 52 m 37 s
 Estimated total run time in seconds =    57136.44    
 Estimated total run time in hh:mm:ss =     15 h 52 m 16 s
 We have done    94.47369     % of that
 The run will finish approximately on (in local time): Thu Mar 05, 2020 09:40
 
 Time step #       180000
 Time:    134.9993      seconds
 Elapsed time in seconds =    54128.9509227440     
 Elapsed time in hh:mm:ss =     15 h 02 m 08 s
 Mean elapsed time per time step in seconds =   0.3007164    
 Max norm displacement vector U in all slices (m) =   1.2430084E-04
 Time steps done =       180000  out of       190000
 Time steps remaining =        10000
 Estimated remaining time in seconds =    3007.164    
 Estimated remaining time in hh:mm:ss =      0 h 50 m 07 s
 Estimated total run time in seconds =    57136.11    
 Estimated total run time in hh:mm:ss =     15 h 52 m 16 s
 We have done    94.73684     % of that
 The run will finish approximately on (in local time): Thu Mar 05, 2020 09:40
 
 
 Total number of time steps written:       180000
 Writing the seismograms in parallel took   3.1357980E-05  seconds
 
 Time step #       180500
 Time:    135.3743      seconds
 Elapsed time in seconds =    54279.6860096420     
 Elapsed time in hh:mm:ss =     15 h 04 m 39 s
 Mean elapsed time per time step in seconds =   0.3007185    
 Max norm displacement vector U in all slices (m) =   1.2430089E-04
 Time steps done =       180500  out of       190000
 Time steps remaining =         9500
 Estimated remaining time in seconds =    2856.826    
 Estimated remaining time in hh:mm:ss =      0 h 47 m 36 s
 Estimated total run time in seconds =    57136.51    
 Estimated total run time in hh:mm:ss =     15 h 52 m 16 s
 We have done    95.00000     % of that
 The run will finish approximately on (in local time): Thu Mar 05, 2020 09:40
 
 Time step #       181000
 Time:    135.7493      seconds
 Elapsed time in seconds =    54430.0058120170     
 Elapsed time in hh:mm:ss =     15 h 07 m 10 s
 Mean elapsed time per time step in seconds =   0.3007183    
 Max norm displacement vector U in all slices (m) =   1.2430143E-04
 Time steps done =       181000  out of       190000
 Time steps remaining =         9000
 Estimated remaining time in seconds =    2706.464    
 Estimated remaining time in hh:mm:ss =      0 h 45 m 06 s
 Estimated total run time in seconds =    57136.47    
 Estimated total run time in hh:mm:ss =     15 h 52 m 16 s
 We have done    95.26316     % of that
 The run will finish approximately on (in local time): Thu Mar 05, 2020 09:40
 
 Time step #       181500
 Time:    136.1243      seconds
 Elapsed time in seconds =    54580.2175237610     
 Elapsed time in hh:mm:ss =     15 h 09 m 40 s
 Mean elapsed time per time step in seconds =   0.3007174    
 Max norm displacement vector U in all slices (m) =   1.2430127E-04
 Time steps done =       181500  out of       190000
 Time steps remaining =         8500
 Estimated remaining time in seconds =    2556.098    
 Estimated remaining time in hh:mm:ss =      0 h 42 m 36 s
 Estimated total run time in seconds =    57136.32    
 Estimated total run time in hh:mm:ss =     15 h 52 m 16 s
 We have done    95.52631     % of that
 The run will finish approximately on (in local time): Thu Mar 05, 2020 09:40
 
 Time step #       182000
 Time:    136.4993      seconds
 Elapsed time in seconds =    54729.9076515719     
 Elapsed time in hh:mm:ss =     15 h 12 m 09 s
 Mean elapsed time per time step in seconds =   0.3007138    
 Max norm displacement vector U in all slices (m) =   1.2430089E-04
 Time steps done =       182000  out of       190000
 Time steps remaining =         8000
 Estimated remaining time in seconds =    2405.710    
 Estimated remaining time in hh:mm:ss =      0 h 40 m 05 s
 Estimated total run time in seconds =    57135.62    
 Estimated total run time in hh:mm:ss =     15 h 52 m 15 s
 We have done    95.78947     % of that
 The run will finish approximately on (in local time): Thu Mar 05, 2020 09:40
 
 Time step #       182500
 Time:    136.8743      seconds
 Elapsed time in seconds =    54879.9053256860     
 Elapsed time in hh:mm:ss =     15 h 14 m 39 s
 Mean elapsed time per time step in seconds =   0.3007118    
 Max norm displacement vector U in all slices (m) =   1.2430115E-04
 Time steps done =       182500  out of       190000
 Time steps remaining =         7500
 Estimated remaining time in seconds =    2255.339    
 Estimated remaining time in hh:mm:ss =      0 h 37 m 35 s
 Estimated total run time in seconds =    57135.24    
 Estimated total run time in hh:mm:ss =     15 h 52 m 15 s
 We have done    96.05264     % of that
 The run will finish approximately on (in local time): Thu Mar 05, 2020 09:40
 
 Time step #       183000
 Time:    137.2493      seconds
 Elapsed time in seconds =    55030.0127092589     
 Elapsed time in hh:mm:ss =     15 h 17 m 10 s
 Mean elapsed time per time step in seconds =   0.3007104    
 Max norm displacement vector U in all slices (m) =   1.2430125E-04
 Time steps done =       183000  out of       190000
 Time steps remaining =         7000
 Estimated remaining time in seconds =    2104.973    
 Estimated remaining time in hh:mm:ss =      0 h 35 m 04 s
 Estimated total run time in seconds =    57134.98    
 Estimated total run time in hh:mm:ss =     15 h 52 m 14 s
 We have done    96.31579     % of that
 The run will finish approximately on (in local time): Thu Mar 05, 2020 09:40
 
 Time step #       183500
 Time:    137.6243      seconds
 Elapsed time in seconds =    55180.5085635589     
 Elapsed time in hh:mm:ss =     15 h 19 m 40 s
 Mean elapsed time per time step in seconds =   0.3007112    
 Max norm displacement vector U in all slices (m) =   1.2430092E-04
 Time steps done =       183500  out of       190000
 Time steps remaining =         6500
 Estimated remaining time in seconds =    1954.623    
 Estimated remaining time in hh:mm:ss =      0 h 32 m 34 s
 Estimated total run time in seconds =    57135.13    
 Estimated total run time in hh:mm:ss =     15 h 52 m 15 s
 We have done    96.57895     % of that
 The run will finish approximately on (in local time): Thu Mar 05, 2020 09:40
 
 Time step #       184000
 Time:    137.9993      seconds
 Elapsed time in seconds =    55330.8486816559     
 Elapsed time in hh:mm:ss =     15 h 22 m 10 s
 Mean elapsed time per time step in seconds =   0.3007111    
 Max norm displacement vector U in all slices (m) =   1.2430100E-04
 Time steps done =       184000  out of       190000
 Time steps remaining =         6000
 Estimated remaining time in seconds =    1804.267    
 Estimated remaining time in hh:mm:ss =      0 h 30 m 04 s
 Estimated total run time in seconds =    57135.12    
 Estimated total run time in hh:mm:ss =     15 h 52 m 15 s
 We have done    96.84210     % of that
 The run will finish approximately on (in local time): Thu Mar 05, 2020 09:40
 
 Time step #       184500
 Time:    138.3743      seconds
 Elapsed time in seconds =    55481.3071113470     
 Elapsed time in hh:mm:ss =     15 h 24 m 41 s
 Mean elapsed time per time step in seconds =   0.3007117    
 Max norm displacement vector U in all slices (m) =   1.2430135E-04
 Time steps done =       184500  out of       190000
 Time steps remaining =         5500
 Estimated remaining time in seconds =    1653.914    
 Estimated remaining time in hh:mm:ss =      0 h 27 m 33 s
 Estimated total run time in seconds =    57135.22    
 Estimated total run time in hh:mm:ss =     15 h 52 m 15 s
 We have done    97.10526     % of that
 The run will finish approximately on (in local time): Thu Mar 05, 2020 09:40
 
 Time step #       185000
 Time:    138.7493      seconds
 Elapsed time in seconds =    55631.2708937309     
 Elapsed time in hh:mm:ss =     15 h 27 m 11 s
 Mean elapsed time per time step in seconds =   0.3007096    
 Max norm displacement vector U in all slices (m) =   1.2430124E-04
 Time steps done =       185000  out of       190000
 Time steps remaining =         5000
 Estimated remaining time in seconds =    1503.548    
 Estimated remaining time in hh:mm:ss =      0 h 25 m 03 s
 Estimated total run time in seconds =    57134.82    
 Estimated total run time in hh:mm:ss =     15 h 52 m 14 s
 We have done    97.36842     % of that
 The run will finish approximately on (in local time): Thu Mar 05, 2020 09:40
 
 
 Total number of time steps written:       185000
 Writing the seismograms in parallel took   3.1777075E-05  seconds
 
 Time step #       185500
 Time:    139.1243      seconds
 Elapsed time in seconds =    55782.4180709829     
 Elapsed time in hh:mm:ss =     15 h 29 m 42 s
 Mean elapsed time per time step in seconds =   0.3007138    
 Max norm displacement vector U in all slices (m) =   1.2430084E-04
 Time steps done =       185500  out of       190000
 Time steps remaining =         4500
 Estimated remaining time in seconds =    1353.212    
 Estimated remaining time in hh:mm:ss =      0 h 22 m 33 s
 Estimated total run time in seconds =    57135.63    
 Estimated total run time in hh:mm:ss =     15 h 52 m 15 s
 We have done    97.63158     % of that
 The run will finish approximately on (in local time): Thu Mar 05, 2020 09:40
 
 Time step #       186000
 Time:    139.4993      seconds
 Elapsed time in seconds =    55933.1735477620     
 Elapsed time in hh:mm:ss =     15 h 32 m 13 s
 Mean elapsed time per time step in seconds =   0.3007160    
 Max norm displacement vector U in all slices (m) =   1.2430114E-04
 Time steps done =       186000  out of       190000
 Time steps remaining =         4000
 Estimated remaining time in seconds =    1202.864    
 Estimated remaining time in hh:mm:ss =      0 h 20 m 02 s
 Estimated total run time in seconds =    57136.04    
 Estimated total run time in hh:mm:ss =     15 h 52 m 16 s
 We have done    97.89474     % of that
 The run will finish approximately on (in local time): Thu Mar 05, 2020 09:40
 
 Time step #       186500
 Time:    139.8743      seconds
 Elapsed time in seconds =    56083.9610472040     
 Elapsed time in hh:mm:ss =     15 h 34 m 43 s
 Mean elapsed time per time step in seconds =   0.3007183    
 Max norm displacement vector U in all slices (m) =   1.2430128E-04
 Time steps done =       186500  out of       190000
 Time steps remaining =         3500
 Estimated remaining time in seconds =    1052.514    
 Estimated remaining time in hh:mm:ss =      0 h 17 m 32 s
 Estimated total run time in seconds =    57136.48    
 Estimated total run time in hh:mm:ss =     15 h 52 m 16 s
 We have done    98.15790     % of that
 The run will finish approximately on (in local time): Thu Mar 05, 2020 09:41
 
 Time step #       187000
 Time:    140.2493      seconds
 Elapsed time in seconds =    56234.2253826059     
 Elapsed time in hh:mm:ss =     15 h 37 m 14 s
 Mean elapsed time per time step in seconds =   0.3007178    
 Max norm displacement vector U in all slices (m) =   1.2430096E-04
 Time steps done =       187000  out of       190000
 Time steps remaining =         3000
 Estimated remaining time in seconds =    902.1533    
 Estimated remaining time in hh:mm:ss =      0 h 15 m 02 s
 Estimated total run time in seconds =    57136.38    
 Estimated total run time in hh:mm:ss =     15 h 52 m 16 s
 We have done    98.42105     % of that
 The run will finish approximately on (in local time): Thu Mar 05, 2020 09:40
 
 Time step #       187500
 Time:    140.6243      seconds
 Elapsed time in seconds =    56384.8959504319     
 Elapsed time in hh:mm:ss =     15 h 39 m 44 s
 Mean elapsed time per time step in seconds =   0.3007194    
 Max norm displacement vector U in all slices (m) =   1.2430105E-04
 Time steps done =       187500  out of       190000
 Time steps remaining =         2500
 Estimated remaining time in seconds =    751.7986    
 Estimated remaining time in hh:mm:ss =      0 h 12 m 31 s
 Estimated total run time in seconds =    57136.70    
 Estimated total run time in hh:mm:ss =     15 h 52 m 16 s
 We have done    98.68421     % of that
 The run will finish approximately on (in local time): Thu Mar 05, 2020 09:41
 
 Time step #       188000
 Time:    140.9993      seconds
 Elapsed time in seconds =    56534.7545003829     
 Elapsed time in hh:mm:ss =     15 h 42 m 14 s
 Mean elapsed time per time step in seconds =   0.3007168    
 Max norm displacement vector U in all slices (m) =   1.2430146E-04
 Time steps done =       188000  out of       190000
 Time steps remaining =         2000
 Estimated remaining time in seconds =    601.4335    
 Estimated remaining time in hh:mm:ss =      0 h 10 m 01 s
 Estimated total run time in seconds =    57136.19    
 Estimated total run time in hh:mm:ss =     15 h 52 m 16 s
 We have done    98.94736     % of that
 The run will finish approximately on (in local time): Thu Mar 05, 2020 09:40
 
 Time step #       188500
 Time:    141.3743      seconds
 Elapsed time in seconds =    56684.4934723240     
 Elapsed time in hh:mm:ss =     15 h 44 m 44 s
 Mean elapsed time per time step in seconds =   0.3007135    
 Max norm displacement vector U in all slices (m) =   1.2430112E-04
 Time steps done =       188500  out of       190000
 Time steps remaining =         1500
 Estimated remaining time in seconds =    451.0703    
 Estimated remaining time in hh:mm:ss =      0 h 07 m 31 s
 Estimated total run time in seconds =    57135.56    
 Estimated total run time in hh:mm:ss =     15 h 52 m 15 s
 We have done    99.21053     % of that
 The run will finish approximately on (in local time): Thu Mar 05, 2020 09:41
 
 Time step #       189000
 Time:    141.7493      seconds
 Elapsed time in seconds =    56834.5018610420     
 Elapsed time in hh:mm:ss =     15 h 47 m 14 s
 Mean elapsed time per time step in seconds =   0.3007117    
 Max norm displacement vector U in all slices (m) =   1.2430077E-04
 Time steps done =       189000  out of       190000
 Time steps remaining =         1000
 Estimated remaining time in seconds =    300.7116    
 Estimated remaining time in hh:mm:ss =      0 h 05 m 00 s
 Estimated total run time in seconds =    57135.21    
 Estimated total run time in hh:mm:ss =     15 h 52 m 15 s
 We have done    99.47369     % of that
 The run will finish approximately on (in local time): Thu Mar 05, 2020 09:40
 
 Time step #       189500
 Time:    142.1243      seconds
 Elapsed time in seconds =    56984.5812677540     
 Elapsed time in hh:mm:ss =     15 h 49 m 44 s
 Mean elapsed time per time step in seconds =   0.3007102    
 Max norm displacement vector U in all slices (m) =   1.2430116E-04
 Time steps done =       189500  out of       190000
 Time steps remaining =          500
 Estimated remaining time in seconds =    150.3551    
 Estimated remaining time in hh:mm:ss =      0 h 02 m 30 s
 Estimated total run time in seconds =    57134.94    
 Estimated total run time in hh:mm:ss =     15 h 52 m 14 s
 We have done    99.73684     % of that
 The run will finish approximately on (in local time): Thu Mar 05, 2020 09:41
 
 Time step #       190000
 Time:    142.4993      seconds
 Elapsed time in seconds =    57136.4913130959     
 Elapsed time in hh:mm:ss =     15 h 52 m 16 s
 Mean elapsed time per time step in seconds =   0.3007184    
 Max norm displacement vector U in all slices (m) =   1.2430134E-04
 Time steps done =       190000  out of       190000
 Time steps remaining =            0
 Estimated remaining time in seconds =   0.0000000E+00
 Estimated remaining time in hh:mm:ss =      0 h 00 m 00 s
 Estimated total run time in seconds =    57136.49    
 Estimated total run time in hh:mm:ss =     15 h 52 m 16 s
 We have done    100.0000     % of that
 
 
 Total number of time steps written:       190000
 Writing the seismograms in parallel took   2.9543065E-05  seconds
 
 Time-Loop Complete. Timing info:
 Total elapsed time in seconds =    57136.9522149679     
 Total elapsed time in hh:mm:ss =     15 h 52 m 16 s
 
 End of the simulation
 
